9
symmetry c1
Sn      -2.098815000     -1.559552000     -0.000670000
Sn       0.518170000      1.837631000     -1.521228000
Sn       0.518131000     -1.837566000     -1.521313000
Sn       0.517512000      1.836590000      1.522091000
Ge      -1.446519000      0.000069000     -2.287529000
Bi       2.397061000     -0.000011000      0.000152000
Sn       0.517497000     -1.836674000      1.521999000
Sn      -2.098803000      1.559568000     -0.000634000
Ge      -1.448501000     -0.000038000      2.286752000